FoamFile
{
  version     2.0;
  format      ascii;
  class       dictionary;
  location    "constant";
  object      transportProperties;
}
	
phase.theta
{
    rho	rho [1 -3 0 0 0 0 0]	1e3;
    mu	mu [1 -1 -1 0 0 0 0]	1e-3;
}

thetamin thetamin [0 0 0 0 0 0 0] 0.019852; // = 0.7*0.02836
thetamax thetamax [0 0 0 0 0 0 0] 0.7;
rs rs [1 -3 0 0 0 0 0] 1611.11;

tau tau [0 0 0 0 0 0 0] 5.29;
alphaT alphaT [0 1 0 0 0 0 0] 3e-5;
alphaL $alphaT;

unsaturatedFlowModel LETd;

LETCoeffs
{
  L L [0 0 0 0 0 0 0] 0.004569;
  E	E [0 0 0 0 0 0 0] 12930;
  T	T [0 0 0 0 0 0 0] 1.505;
  Dwt Dwt [0 2 -1 0 0 0 0] 4.660e-4;
}

species
(
    "PfHRP2" //PfHRP2
    "AL" //PfHRP2 + Fetal bovine serum + Murine Antibody + Gold Nanoparticles
    "ALT" // Murine Antibody
    "ALC" //Antimouse Antibody
    "GER" //Gold enhancement reagent
    "TRIS" //Buffer
    
    //Inlet product
    "PfHRP2_AL"
    
    //Test line reactions
    "PfHRP2_AL_ALT"
    "PfHRP2_AL_ALT_GER"
    
    //Control line reactions
    "AL_ALC"
    "AL_ALC_GER"
);

PfHRP2
{
    Kd Kd [-1 3 0 0 0 0 0] 0.0;
    Dm diffusivity [0 2 -1 0 0 0 0 ] 8.0913e-10;
}

TRIS
{
    Kd Kd [-1 3 0 0 0 0 0] 0.0;
    Dm diffusivity [0 2 -1 0 0 0 0 ] 7.6259e-10;
}

AL
{
    Kd Kd [-1 3 0 0 0 0 0] 0.0;
    Dm diffusivity [0 2 -1 0 0 0 0 ] 8.6858e-10;
}

ALT
{
    Kd Kd [-1 3 0 0 0 0 0] 1.447;
    Dm diffusivity [0 2 -1 0 0 0 0 ] 1e-9;
}

ALC
{
    Kd Kd [-1 3 0 0 0 0 0] 1.447;
    Dm diffusivity [0 2 -1 0 0 0 0 ] 1e-9;
}

GER
{
    Kd Kd [-1 3 0 0 0 0 0] 0;
    Dm diffusivity [0 2 -1 0 0 0 0 ] 1e-9;
}

PfHRP2_AL
{
    Kd Kd [-1 3 0 0 0 0 0] 0;
    Dm diffusivity [0 2 -1 0 0 0 0 ] 1e-9;
}

PfHRP2_AL_ALT
{
    Kd Kd [-1 3 0 0 0 0 0] 1.447;
    Dm diffusivity [0 2 -1 0 0 0 0 ] 1e-9;
}

PfHRP2_AL_ALT_GER
{
    Kd Kd [-1 3 0 0 0 0 0] 1.447;
    Dm diffusivity [0 2 -1 0 0 0 0 ] 1e-9;
}

AL_ALC
{
    Kd Kd [-1 3 0 0 0 0 0] 1.447;
    Dm diffusivity [0 2 -1 0 0 0 0 ] 1e-9;
}

AL_ALC_GER
{
    Kd Kd [-1 3 0 0 0 0 0] 1.447;
    Dm diffusivity [0 2 -1 0 0 0 0 ] 1e-9;

}


reactions
{
    PadReaction
    {
        reaction "PfHRP2 + AL = PfHRP2_AL";
        kf kf [0 3 -1 0 -1 0 0] 5e7;
        kr kr [0 0 -1 0 0 0 0] 1.3e-4;
    }
    
    Test_1_Reaction
    {
        reaction "PfHRP2_AL + ALT = PfHRP2_AL_ALT";
        kf kf [0 3 -1 0 -1 0 0] 3.4e3;
        kr kr [0 0 -1 0 0 0 0] 7.1e-4;
    }
    
    Test_2_Reaction
    {
        reaction "PfHRP2_AL_ALT + GER = PfHRP2_AL_ALT_GER";
        kf kf [0 3 -1 0 -1 0 0] 3.4e5;
        kr kr [0 0 -1 0 0 0 0] 7.1e-4;
    }
    
    Control_1_Reaction
    {
        reaction "AL + ALC = AL_ALC";
        kf kf [0 3 -1 0 -1 0 0] 3.4e3;
        kr kr [0 0 -1 0 0 0 0] 7.1e-4;
    }
    
    Control_2_Reaction
    {
        reaction "AL_ALC + GER = AL_ALC_GER";
        kf kf [0 3 -1 0 -1 0 0] 3.4e5;
        kr kr [0 0 -1 0 0 0 0] 7.1e-4;
    }
}
